  Page 1                                    Mon Aug  4 03:11:27 2025

  ******************************************************************
  *                           E P A N E T                          *
  *                   Hydraulic and Water Quality                  *
  *                   Analysis for Pipe Networks                   *
  *                         Version 2.2                            *
  ******************************************************************
  
  Analysis begun Mon Aug  4 03:11:27 2025

   
  Hydraulic Status:
  -----------------------------------------------------------------------
     0:00:00: Balancing the network:

              Trial  1: relative flow change = 0.077258
              Trial  2: relative flow change = 0.000000
                        maximum  flow change = 0.0000 for Link P1
                        maximum  head error  = 0.0000 for Link P1

     0:00:00: Balanced after 2 trials
     0:00:00: Reservoir R1 is emptying
   
     1:00:00: Balancing the network:

              Trial  1: relative flow change = 0.000000
                        maximum  flow change = 0.0000 for Link P1
                        maximum  head error  = 0.0000 for Link P1

     1:00:00: Balanced after 1 trials
   
     2:00:00: Balancing the network:

              Trial  1: relative flow change = 0.000000
                        maximum  flow change = 0.0000 for Link P1
                        maximum  head error  = 0.0000 for Link P1

     2:00:00: Balanced after 1 trials
   
  Analysis ended Mon Aug  4 03:11:27 2025
